Circuit: * C:\users\akash\Desktop\ActiveFiltersPractice\Project\AF_Project_Transistor_Level_Realization.asc

Ignoring BSIM parameter XL
Ignoring BSIM parameter XW
Ignoring BSIM parameter XL
Ignoring BSIM parameter XW
WARNING: Node NC_01 is floating.

WARNING: Less than two connections to node NC_01.  This node is used by C8.
Warning: Pd = 0 is less than W.
Warning: Ps = 0 is less than W.
Warning: Pd = 0 is less than W.
Warning: Ps = 0 is less than W.
Warning: Pd = 0 is less than W.
Warning: Ps = 0 is less than W.
Direct Newton iteration for .op point succeeded.

Date: Sun Nov 06 22:06:37 2022
Total elapsed time: 0.909 seconds.

tnom = 27
temp = 27
method = trap
totiter = 31
traniter = 0
tranpoints = 0
accept = 0
rejected = 0
matrix size = 39
fillins = 16
solver = Normal
Matrix Compiler1:     317 opcodes
Matrix Compiler2: 4.77 KB object code size
