Circuit: * C:\users\akash\Desktop\ActiveFiltersPractice\Project\AFProject_Transistor_Level_Realization_2.asc

Ignoring BSIM parameter XL
Ignoring BSIM parameter XW
Ignoring BSIM parameter XL
Ignoring BSIM parameter XW
Number of points per decade reduced from 10000 to 4613.
Warning: Pd = 0 is less than W.
Warning: Ps = 0 is less than W.
Warning: Pd = 0 is less than W.
Warning: Ps = 0 is less than W.
Warning: Pd = 0 is less than W.
Warning: Ps = 0 is less than W.
Direct Newton iteration for .op point succeeded.

Date: Sat Nov 19 20:45:38 2022
Total elapsed time: 4.100 seconds.

tnom = 27
temp = 27
method = trap
totiter = 19
traniter = 0
tranpoints = 0
accept = 0
rejected = 0
matrix size = 104
fillins = 50
solver = Normal
Matrix Compiler1:     442 opcodes
Matrix Compiler2: 8.64 KB object code size
