Circuit: * C:\users\akash\Desktop\ActiveFiltersPractice\Project\AFProject_Macromodel_Fully_Differential.asc

ERROR: Node N004 is floating and connected to current source G8
ERROR: Node N001 is floating and connected to current source G7
ERROR: Node N005 is floating and connected to current source G5
ERROR: Node N002 is floating and connected to current source G6
ERROR: Node N006 is floating and connected to current source G16
ERROR: Node N003 is floating and connected to current source G15
ERROR: Node VO- is floating and connected to current source G13
ERROR: Node VO+ is floating and connected to current source G14


Date: Sat Nov 19 20:41:10 2022
Total elapsed time: 0.143 seconds.

tnom = 27
temp = 27
method = trap
totiter = 0
traniter = 0
tranpoints = 0
accept = 0
rejected = 0
matrix size = 14
fillins = 13
solver = Normal

