Circuit: * C:\users\akash\Desktop\ActiveFiltersPractice\Project\Draft4.asc

Ignoring BSIM parameter XL
Ignoring BSIM parameter XW
Warning: Pd = 0 is less than W.
Warning: Ps = 0 is less than W.

Date: Tue Nov 01 14:57:12 2022
Total elapsed time: 0.205 seconds.

tnom = 27
temp = 27
method = trap
totiter = 6605
traniter = 0
tranpoints = 0
accept = 0
rejected = 0
matrix size = 4
fillins = 0
solver = Normal
Matrix Compiler1: 118 bytes object code size  0.0/0.1/[0.0]
Matrix Compiler2: off  [0.0]/0.1/0.0

