Circuit: * C:\users\akash\Desktop\ActiveFiltersPractice\Project\Draft6.asc

Ignoring BSIM parameter XL
Ignoring BSIM parameter XW
Ignoring BSIM parameter XL
Ignoring BSIM parameter XW
Warning: Pd = 0 is less than W.
Warning: Ps = 0 is less than W.
Warning: Pd = 0 is less than W.
Warning: Ps = 0 is less than W.
Warning: Pd = 0 is less than W.
Warning: Ps = 0 is less than W.
Direct Newton iteration for .op point succeeded.

Date: Tue Nov 01 18:02:11 2022
Total elapsed time: 0.084 seconds.

tnom = 27
temp = 27
method = modified trap
totiter = 1056
traniter = 1036
tranpoints = 405
accept = 247
rejected = 158
matrix size = 15
fillins = 0
solver = Normal
Matrix Compiler1: 560 bytes object code size  0.1/0.1/[0.1]
Matrix Compiler2: off  [0.1]/0.1/0.1

