Circuit: * C:\users\akash\Desktop\ActiveFiltersPractice\Project\NMOS_Input_Characteristics.asc

Ignoring BSIM parameter XL
Ignoring BSIM parameter XW
Warning: Pd = 0 is less than W.
Warning: Ps = 0 is less than W.

Date: Tue Nov 01 16:34:38 2022
Total elapsed time: 0.196 seconds.

tnom = 27
temp = 27
method = trap
totiter = 6604
traniter = 0
tranpoints = 0
accept = 0
rejected = 0
matrix size = 4
fillins = 0
solver = Normal
Matrix Compiler1: 118 bytes object code size  0.1/0.1/[0.0]
Matrix Compiler2: off  [0.1]/0.1/0.1

