Circuit: * C:\users\akash\Desktop\ActiveFiltersPractice\Project\TSMC250nm.asc

Ignoring BSIM parameter XL
Ignoring BSIM parameter XW
Warning: Pd = 0 is less than W.
Warning: Ps = 0 is less than W.

Date: Tue Nov 01 14:00:11 2022
Total elapsed time: 0.268 seconds.

tnom = 27
temp = 27
method = trap
totiter = 66005
traniter = 0
tranpoints = 0
accept = 0
rejected = 0
matrix size = 6
fillins = 0
solver = Normal
Matrix Compiler1:      14 opcodes  0.1/[0.0]/0.1
Matrix Compiler2: 364 bytes object code size  0.1/0.1/[0.0]

